Version 4
SHEET 1 2328 1460
WIRE 96 336 80 336
WIRE 192 336 176 336
WIRE 368 336 352 336
WIRE 464 336 448 336
WIRE 192 416 176 416
WIRE 416 416 352 416
WIRE 416 448 416 416
WIRE 176 544 176 416
WIRE 416 544 416 528
FLAG 48 592 0
FLAG 416 544 0
FLAG 464 320 in
FLAG 48 512 trig
FLAG 176 544 0
FLAG 48 720 0
FLAG 80 320 trig
FLAG 48 640 in
FLAG 672 704 0
FLAG 672 576 0
FLAG 672 624 Vt
FLAG 80 336 Vt
FLAG 464 336 Vi
FLAG 672 496 Vi
SYMBOL res 352 352 R270
WINDOW 0 32 56 VTop 0
WINDOW 3 0 56 VBottom 0
SYMATTR InstName R40
SYMATTR Value 1k
SYMBOL voltage 48 624 R0
WINDOW 39 0 0 Left 0
WINDOW 123 0 0 Left 0
WINDOW 3 33 81 Left 0
SYMATTR Value PWL(0 0 100u 100 10m 100 15m 100 19m 0 20m 0 20.020m 200 25m 200 26m 0 29m 0 30m 100 40m 100 41m -100)
SYMATTR InstName V1
SYMBOL voltage 48 496 R0
WINDOW 123 0 0 Left 0
WINDOW 39 0 0 Left 0
WINDOW 3 31 82 Left 0
SYMATTR Value PWL(0 0 1m 0 10m 10 11m 0 31m 0 31.0001m 11 32m 11 32.0001m 0 44m 0 44.0001m 11 44.100m 11 44.1001m 0)
SYMATTR InstName V2
SYMBOL res 80 352 R270
WINDOW 0 32 56 VTop 0
WINDOW 3 0 56 VBottom 0
SYMATTR InstName R70
SYMATTR Value 500
SYMBOL res 400 432 R0
SYMATTR InstName R1
SYMATTR Value 1
SYMBOL AutoGenerated\\MOC3020 240 352 R0
SYMATTR InstName U2
SYMBOL voltage 672 608 R0
WINDOW 123 0 0 Left 0
WINDOW 39 0 0 Left 0
SYMATTR InstName V3
SYMATTR Value PWL(0 0 4m 0 5m 10)
SYMBOL voltage 672 480 R0
WINDOW 123 0 0 Left 0
WINDOW 39 0 0 Left 0
SYMATTR InstName V4
SYMATTR Value SINE(0 230 50)
TEXT 24 272 Left 0 ;.DC V1 0 50 10m
TEXT 24 256 Left 0 !.tran 0 50m 0 startup
TEXT 24 288 Left 0 !.INCLUDE MOC3020.lib
TEXT 360 240 Left 0 ;5ms  I_trig  \n19m  I_hold\n20ms 10V/us dv/dT\n30ms  Ton  3*Itrig\n44ms  negative voltage
TEXT 24 232 Left 0 ;OPTO TRIAC TEST\nHelmut Sennewald 8/10/2004
