Version 4
SHEET 1 1280 708
WIRE 160 -256 160 -272
WIRE -592 -224 -704 -224
WIRE -944 -208 -944 -272
WIRE -656 -208 -656 -272
WIRE -704 -192 -704 -224
WIRE -688 -192 -704 -192
WIRE -496 -192 -496 -272
WIRE -240 -192 -240 -272
WIRE -224 -192 -240 -192
WIRE 32 -192 32 -272
WIRE 32 -192 16 -192
WIRE -592 -176 -592 -224
WIRE -592 -176 -624 -176
WIRE -528 -176 -592 -176
WIRE -688 -160 -896 -160
WIRE -224 -160 -464 -160
WIRE -544 -144 -544 -272
WIRE -528 -144 -544 -144
WIRE 32 -112 16 -112
WIRE 160 -96 160 -112
WIRE 256 -96 160 -96
WIRE 160 -64 160 -96
WIRE 256 0 256 -96
WIRE 160 48 160 16
WIRE -944 176 -944 -128
WIRE -656 176 -656 -144
WIRE -496 176 -496 -128
WIRE -240 176 -240 -112
WIRE 160 176 160 128
WIRE 256 176 256 64
FLAG 48 -400 0
FLAG 48 -480 Vcc
FLAG 160 -272 Vcc
FLAG 160 176 0
FLAG -240 176 0
FLAG -208 -400 0
FLAG -208 -480 Vsaw
FLAG 128 -400 0
FLAG 128 -480 Vsmax
FLAG 32 -272 Vcc
FLAG -496 176 0
FLAG -496 -272 Vsmax
FLAG -544 -272 Vsaw
FLAG -240 -272 Vsmax
FLAG -944 -272 Vsmax
FLAG -944 176 0
FLAG -656 176 0
FLAG -656 -272 Vsmax
FLAG 256 176 0
SYMBOL res 144 -80 R0
WINDOW 3 38 65 Left 2
SYMATTR Value 1k
SYMATTR InstName R1
SYMBOL voltage 48 -496 R0
WINDOW 0 -15 15 Right 2
WINDOW 3 -22 95 Right 2
WINDOW 123 0 0 Left 0
WINDOW 39 0 0 Left 0
SYMATTR InstName Vcc
SYMATTR Value SINE(0 230 50 0)
SYMBOL Misc\\SCR 144 -176 R0
WINDOW 0 34 16 Left 2
WINDOW 3 34 49 Left 2
SYMATTR InstName U1
SYMATTR Value EC103D1
SYMBOL res 128 -128 R90
WINDOW 0 0 56 VBottom 2
WINDOW 3 32 56 VTop 2
SYMATTR InstName R2
SYMATTR Value 1k
SYMBOL voltage -208 -496 R0
WINDOW 0 -16 17 Right 2
WINDOW 3 -22 95 Right 2
SYMATTR InstName V1
SYMATTR Value PWL repeat forever((0 0)(+10m 5)(+1n 0)(+10m 0))endrepeat
SYMBOL voltage 128 -496 R0
WINDOW 0 -46 16 Left 2
WINDOW 3 -41 91 Left 2
WINDOW 123 0 0 Left 0
WINDOW 39 0 0 Left 0
SYMATTR InstName V3
SYMATTR Value 5
SYMBOL res -128 -208 R90
WINDOW 0 0 56 VBottom 2
WINDOW 3 26 56 VTop 2
SYMATTR InstName R3
SYMATTR Value 200
SYMBOL AutoGenerated\\MOC3020 -96 -176 R0
SYMATTR InstName U2
SYMBOL nmos -144 -160 R90
WINDOW 0 61 18 VRight 2
WINDOW 3 30 95 VRight 2
SYMATTR InstName M1
SYMATTR Value Si1555DL_N
SYMBOL res 144 -272 R0
SYMATTR InstName R4
SYMATTR Value 0.1
SYMBOL Comparators\\LT1721 -496 -224 R0
SYMATTR InstName U3
SYMBOL potentiometer -960 -224 R0
WINDOW 3 36 88 Left 2
SYMATTR Value Rtot=1k wiper=0.5
SYMATTR InstName U4
SYMBOL Opamps\\AD549 -656 -240 R0
SYMATTR InstName U5
SYMBOL cap 240 0 R0
SYMATTR InstName C1
SYMATTR Value 0
SYMBOL ind 144 32 R0
SYMATTR InstName L1
SYMATTR Value 0
TEXT -944 -496 Left 2 !.tran 0 0.08 0 10u
TEXT -944 -472 Left 2 !.lib EC103D1.lib
TEXT -944 -448 Left 2 !.lib MOC3020.lib
TEXT -944 -424 Left 2 !.include potentiometer.sub
